
---------- Begin Simulation Statistics ----------
simSeconds                                   0.000043                       # Number of seconds simulated (Second)
simTicks                                     42632107                       # Number of ticks simulated (Tick)
finalTick                                    42632107                       # Number of ticks from beginning of simulation (restored from checkpoints and never reset) (Tick)
simFreq                                  1000000000000                       # The number of ticks per simulated second ((Tick/Second))
hostSeconds                                      0.20                       # Real time elapsed on the host (Second)
hostTickRate                                213035164                       # The number of ticks simulated per host second (ticks/s) ((Tick/Second))
hostMemory                                    1163956                       # Number of bytes of host memory used (Byte)
simInsts                                        10738                       # Number of instructions simulated (Count)
simOps                                          10746                       # Number of ops (including micro ops) simulated (Count)
hostInstRate                                    53594                       # Simulator instruction rate (inst/s) ((Count/Second))
hostOpRate                                      53625                       # Simulator op (including micro ops) rate (op/s) ((Count/Second))
board.cache_hierarchy.dptw_caches.blockedCycles::no_mshrs            0                       # number of cycles access was blocked (Cycle)
board.cache_hierarchy.dptw_caches.blockedCycles::no_targets            0                       # number of cycles access was blocked (Cycle)
board.cache_hierarchy.dptw_caches.blockedCauses::no_mshrs            0                       # number of times access was blocked (Count)
board.cache_hierarchy.dptw_caches.blockedCauses::no_targets            0                       # number of times access was blocked (Count)
board.cache_hierarchy.dptw_caches.avgBlocked::no_mshrs          nan                       # average number of cycles each access was blocked ((Cycle/Count))
board.cache_hierarchy.dptw_caches.avgBlocked::no_targets          nan                       # average number of cycles each access was blocked ((Cycle/Count))
board.cache_hierarchy.dptw_caches.replacements            0                       # number of replacements (Count)
board.cache_hierarchy.dptw_caches.power_state.pwrStateResidencyTicks::UNDEFINED     42632107                       # Cumulative time (in ticks) in various power states (Tick)
board.cache_hierarchy.dptw_caches.tags.tagsInUse            0                       # Average ticks per tags in use ((Tick/Count))
board.cache_hierarchy.dptw_caches.tags.totalRefs            0                       # Total number of references to valid blocks. (Count)
board.cache_hierarchy.dptw_caches.tags.sampledRefs            0                       # Sample count of references to valid blocks. (Count)
board.cache_hierarchy.dptw_caches.tags.avgRefs          nan                       # Average number of references to valid blocks. ((Count/Count))
board.cache_hierarchy.dptw_caches.tags.warmupTick            0                       # The tick when the warmup percentage was hit. (Tick)
board.cache_hierarchy.dptw_caches.tags.tagAccesses            0                       # Number of tag accesses (Count)
board.cache_hierarchy.dptw_caches.tags.dataAccesses            0                       # Number of data accesses (Count)
board.cache_hierarchy.dptw_caches.tags.power_state.pwrStateResidencyTicks::UNDEFINED     42632107                       # Cumulative time (in ticks) in various power states (Tick)
board.cache_hierarchy.iptw_caches.blockedCycles::no_mshrs            0                       # number of cycles access was blocked (Cycle)
board.cache_hierarchy.iptw_caches.blockedCycles::no_targets            0                       # number of cycles access was blocked (Cycle)
board.cache_hierarchy.iptw_caches.blockedCauses::no_mshrs            0                       # number of times access was blocked (Count)
board.cache_hierarchy.iptw_caches.blockedCauses::no_targets            0                       # number of times access was blocked (Count)
board.cache_hierarchy.iptw_caches.avgBlocked::no_mshrs          nan                       # average number of cycles each access was blocked ((Cycle/Count))
board.cache_hierarchy.iptw_caches.avgBlocked::no_targets          nan                       # average number of cycles each access was blocked ((Cycle/Count))
board.cache_hierarchy.iptw_caches.replacements            0                       # number of replacements (Count)
board.cache_hierarchy.iptw_caches.power_state.pwrStateResidencyTicks::UNDEFINED     42632107                       # Cumulative time (in ticks) in various power states (Tick)
board.cache_hierarchy.iptw_caches.tags.tagsInUse            0                       # Average ticks per tags in use ((Tick/Count))
board.cache_hierarchy.iptw_caches.tags.totalRefs            0                       # Total number of references to valid blocks. (Count)
board.cache_hierarchy.iptw_caches.tags.sampledRefs            0                       # Sample count of references to valid blocks. (Count)
board.cache_hierarchy.iptw_caches.tags.avgRefs          nan                       # Average number of references to valid blocks. ((Count/Count))
board.cache_hierarchy.iptw_caches.tags.warmupTick            0                       # The tick when the warmup percentage was hit. (Tick)
board.cache_hierarchy.iptw_caches.tags.tagAccesses            0                       # Number of tag accesses (Count)
board.cache_hierarchy.iptw_caches.tags.dataAccesses            0                       # Number of data accesses (Count)
board.cache_hierarchy.iptw_caches.tags.power_state.pwrStateResidencyTicks::UNDEFINED     42632107                       # Cumulative time (in ticks) in various power states (Tick)
board.cache_hierarchy.l1dcaches.demandHits::processor.cores.core.data         2357                       # number of demand (read+write) hits (Count)
board.cache_hierarchy.l1dcaches.demandHits::total         2357                       # number of demand (read+write) hits (Count)
board.cache_hierarchy.l1dcaches.overallHits::processor.cores.core.data         2357                       # number of overall hits (Count)
board.cache_hierarchy.l1dcaches.overallHits::total         2357                       # number of overall hits (Count)
board.cache_hierarchy.l1dcaches.demandMisses::processor.cores.core.data          318                       # number of demand (read+write) misses (Count)
board.cache_hierarchy.l1dcaches.demandMisses::total          318                       # number of demand (read+write) misses (Count)
board.cache_hierarchy.l1dcaches.overallMisses::processor.cores.core.data          318                       # number of overall misses (Count)
board.cache_hierarchy.l1dcaches.overallMisses::total          318                       # number of overall misses (Count)
board.cache_hierarchy.l1dcaches.demandMissLatency::processor.cores.core.data     16732471                       # number of demand (read+write) miss ticks (Tick)
board.cache_hierarchy.l1dcaches.demandMissLatency::total     16732471                       # number of demand (read+write) miss ticks (Tick)
board.cache_hierarchy.l1dcaches.overallMissLatency::processor.cores.core.data     16732471                       # number of overall miss ticks (Tick)
board.cache_hierarchy.l1dcaches.overallMissLatency::total     16732471                       # number of overall miss ticks (Tick)
board.cache_hierarchy.l1dcaches.demandAccesses::processor.cores.core.data         2675                       # number of demand (read+write) accesses (Count)
board.cache_hierarchy.l1dcaches.demandAccesses::total         2675                       # number of demand (read+write) accesses (Count)
board.cache_hierarchy.l1dcaches.overallAccesses::processor.cores.core.data         2675                       # number of overall (read+write) accesses (Count)
board.cache_hierarchy.l1dcaches.overallAccesses::total         2675                       # number of overall (read+write) accesses (Count)
board.cache_hierarchy.l1dcaches.demandMissRate::processor.cores.core.data     0.118879                       # miss rate for demand accesses (Ratio)
board.cache_hierarchy.l1dcaches.demandMissRate::total     0.118879                       # miss rate for demand accesses (Ratio)
board.cache_hierarchy.l1dcaches.overallMissRate::processor.cores.core.data     0.118879                       # miss rate for overall accesses (Ratio)
board.cache_hierarchy.l1dcaches.overallMissRate::total     0.118879                       # miss rate for overall accesses (Ratio)
board.cache_hierarchy.l1dcaches.demandAvgMissLatency::processor.cores.core.data 52617.833333                       # average overall miss latency in ticks ((Tick/Count))
board.cache_hierarchy.l1dcaches.demandAvgMissLatency::total 52617.833333                       # average overall miss latency in ticks ((Tick/Count))
board.cache_hierarchy.l1dcaches.overallAvgMissLatency::processor.cores.core.data 52617.833333                       # average overall miss latency ((Tick/Count))
board.cache_hierarchy.l1dcaches.overallAvgMissLatency::total 52617.833333                       # average overall miss latency ((Tick/Count))
board.cache_hierarchy.l1dcaches.blockedCycles::no_mshrs            0                       # number of cycles access was blocked (Cycle)
board.cache_hierarchy.l1dcaches.blockedCycles::no_targets            0                       # number of cycles access was blocked (Cycle)
board.cache_hierarchy.l1dcaches.blockedCauses::no_mshrs            0                       # number of times access was blocked (Count)
board.cache_hierarchy.l1dcaches.blockedCauses::no_targets            0                       # number of times access was blocked (Count)
board.cache_hierarchy.l1dcaches.avgBlocked::no_mshrs          nan                       # average number of cycles each access was blocked ((Cycle/Count))
board.cache_hierarchy.l1dcaches.avgBlocked::no_targets          nan                       # average number of cycles each access was blocked ((Cycle/Count))
board.cache_hierarchy.l1dcaches.writebacks::writebacks          150                       # number of writebacks (Count)
board.cache_hierarchy.l1dcaches.writebacks::total          150                       # number of writebacks (Count)
board.cache_hierarchy.l1dcaches.demandMshrHits::processor.cores.core.data           67                       # number of demand (read+write) MSHR hits (Count)
board.cache_hierarchy.l1dcaches.demandMshrHits::total           67                       # number of demand (read+write) MSHR hits (Count)
board.cache_hierarchy.l1dcaches.overallMshrHits::processor.cores.core.data           67                       # number of overall MSHR hits (Count)
board.cache_hierarchy.l1dcaches.overallMshrHits::total           67                       # number of overall MSHR hits (Count)
board.cache_hierarchy.l1dcaches.demandMshrMisses::processor.cores.core.data          251                       # number of demand (read+write) MSHR misses (Count)
board.cache_hierarchy.l1dcaches.demandMshrMisses::total          251                       # number of demand (read+write) MSHR misses (Count)
board.cache_hierarchy.l1dcaches.overallMshrMisses::cache_hierarchy.l1dcaches.prefetcher           24                       # number of overall MSHR misses (Count)
board.cache_hierarchy.l1dcaches.overallMshrMisses::processor.cores.core.data          251                       # number of overall MSHR misses (Count)
board.cache_hierarchy.l1dcaches.overallMshrMisses::total          275                       # number of overall MSHR misses (Count)
board.cache_hierarchy.l1dcaches.demandMshrMissLatency::processor.cores.core.data     13356322                       # number of demand (read+write) MSHR miss ticks (Tick)
board.cache_hierarchy.l1dcaches.demandMshrMissLatency::total     13356322                       # number of demand (read+write) MSHR miss ticks (Tick)
board.cache_hierarchy.l1dcaches.overallMshrMissLatency::cache_hierarchy.l1dcaches.prefetcher      1574346                       # number of overall MSHR miss ticks (Tick)
board.cache_hierarchy.l1dcaches.overallMshrMissLatency::processor.cores.core.data     13356322                       # number of overall MSHR miss ticks (Tick)
board.cache_hierarchy.l1dcaches.overallMshrMissLatency::total     14930668                       # number of overall MSHR miss ticks (Tick)
board.cache_hierarchy.l1dcaches.demandMshrMissRate::processor.cores.core.data     0.093832                       # mshr miss ratio for demand accesses (Ratio)
board.cache_hierarchy.l1dcaches.demandMshrMissRate::total     0.093832                       # mshr miss ratio for demand accesses (Ratio)
board.cache_hierarchy.l1dcaches.overallMshrMissRate::cache_hierarchy.l1dcaches.prefetcher          inf                       # mshr miss ratio for overall accesses (Ratio)
board.cache_hierarchy.l1dcaches.overallMshrMissRate::processor.cores.core.data     0.093832                       # mshr miss ratio for overall accesses (Ratio)
board.cache_hierarchy.l1dcaches.overallMshrMissRate::total     0.102804                       # mshr miss ratio for overall accesses (Ratio)
board.cache_hierarchy.l1dcaches.demandAvgMshrMissLatency::processor.cores.core.data 53212.438247                       # average overall mshr miss latency ((Tick/Count))
board.cache_hierarchy.l1dcaches.demandAvgMshrMissLatency::total 53212.438247                       # average overall mshr miss latency ((Tick/Count))
board.cache_hierarchy.l1dcaches.overallAvgMshrMissLatency::cache_hierarchy.l1dcaches.prefetcher 65597.750000                       # average overall mshr miss latency ((Tick/Count))
board.cache_hierarchy.l1dcaches.overallAvgMshrMissLatency::processor.cores.core.data 53212.438247                       # average overall mshr miss latency ((Tick/Count))
board.cache_hierarchy.l1dcaches.overallAvgMshrMissLatency::total 54293.338182                       # average overall mshr miss latency ((Tick/Count))
board.cache_hierarchy.l1dcaches.replacements          150                       # number of replacements (Count)
board.cache_hierarchy.l1dcaches.HardPFReq.mshrMisses::cache_hierarchy.l1dcaches.prefetcher           24                       # number of HardPFReq MSHR misses (Count)
board.cache_hierarchy.l1dcaches.HardPFReq.mshrMisses::total           24                       # number of HardPFReq MSHR misses (Count)
board.cache_hierarchy.l1dcaches.HardPFReq.mshrMissLatency::cache_hierarchy.l1dcaches.prefetcher      1574346                       # number of HardPFReq MSHR miss ticks (Tick)
board.cache_hierarchy.l1dcaches.HardPFReq.mshrMissLatency::total      1574346                       # number of HardPFReq MSHR miss ticks (Tick)
board.cache_hierarchy.l1dcaches.HardPFReq.mshrMissRate::cache_hierarchy.l1dcaches.prefetcher          inf                       # mshr miss rate for HardPFReq accesses (Ratio)
board.cache_hierarchy.l1dcaches.HardPFReq.mshrMissRate::total          inf                       # mshr miss rate for HardPFReq accesses (Ratio)
board.cache_hierarchy.l1dcaches.HardPFReq.avgMshrMissLatency::cache_hierarchy.l1dcaches.prefetcher 65597.750000                       # average HardPFReq mshr miss latency ((Tick/Count))
board.cache_hierarchy.l1dcaches.HardPFReq.avgMshrMissLatency::total 65597.750000                       # average HardPFReq mshr miss latency ((Tick/Count))
board.cache_hierarchy.l1dcaches.LoadLockedReq.hits::processor.cores.core.data            6                       # number of LoadLockedReq hits (Count)
board.cache_hierarchy.l1dcaches.LoadLockedReq.hits::total            6                       # number of LoadLockedReq hits (Count)
board.cache_hierarchy.l1dcaches.LoadLockedReq.misses::processor.cores.core.data            2                       # number of LoadLockedReq misses (Count)
board.cache_hierarchy.l1dcaches.LoadLockedReq.misses::total            2                       # number of LoadLockedReq misses (Count)
board.cache_hierarchy.l1dcaches.LoadLockedReq.missLatency::processor.cores.core.data       110789                       # number of LoadLockedReq miss ticks (Tick)
board.cache_hierarchy.l1dcaches.LoadLockedReq.missLatency::total       110789                       # number of LoadLockedReq miss ticks (Tick)
board.cache_hierarchy.l1dcaches.LoadLockedReq.accesses::processor.cores.core.data            8                       # number of LoadLockedReq accesses(hits+misses) (Count)
board.cache_hierarchy.l1dcaches.LoadLockedReq.accesses::total            8                       # number of LoadLockedReq accesses(hits+misses) (Count)
board.cache_hierarchy.l1dcaches.LoadLockedReq.missRate::processor.cores.core.data     0.250000                       # miss rate for LoadLockedReq accesses (Ratio)
board.cache_hierarchy.l1dcaches.LoadLockedReq.missRate::total     0.250000                       # miss rate for LoadLockedReq accesses (Ratio)
board.cache_hierarchy.l1dcaches.LoadLockedReq.avgMissLatency::processor.cores.core.data 55394.500000                       # average LoadLockedReq miss latency ((Tick/Count))
board.cache_hierarchy.l1dcaches.LoadLockedReq.avgMissLatency::total 55394.500000                       # average LoadLockedReq miss latency ((Tick/Count))
board.cache_hierarchy.l1dcaches.LoadLockedReq.mshrMisses::processor.cores.core.data            2                       # number of LoadLockedReq MSHR misses (Count)
board.cache_hierarchy.l1dcaches.LoadLockedReq.mshrMisses::total            2                       # number of LoadLockedReq MSHR misses (Count)
board.cache_hierarchy.l1dcaches.LoadLockedReq.mshrMissLatency::processor.cores.core.data       109123                       # number of LoadLockedReq MSHR miss ticks (Tick)
board.cache_hierarchy.l1dcaches.LoadLockedReq.mshrMissLatency::total       109123                       # number of LoadLockedReq MSHR miss ticks (Tick)
board.cache_hierarchy.l1dcaches.LoadLockedReq.mshrMissRate::processor.cores.core.data     0.250000                       # mshr miss rate for LoadLockedReq accesses (Ratio)
board.cache_hierarchy.l1dcaches.LoadLockedReq.mshrMissRate::total     0.250000                       # mshr miss rate for LoadLockedReq accesses (Ratio)
board.cache_hierarchy.l1dcaches.LoadLockedReq.avgMshrMissLatency::processor.cores.core.data 54561.500000                       # average LoadLockedReq mshr miss latency ((Tick/Count))
board.cache_hierarchy.l1dcaches.LoadLockedReq.avgMshrMissLatency::total 54561.500000                       # average LoadLockedReq mshr miss latency ((Tick/Count))
board.cache_hierarchy.l1dcaches.ReadReq.hits::processor.cores.core.data         1224                       # number of ReadReq hits (Count)
board.cache_hierarchy.l1dcaches.ReadReq.hits::total         1224                       # number of ReadReq hits (Count)
board.cache_hierarchy.l1dcaches.ReadReq.misses::processor.cores.core.data          141                       # number of ReadReq misses (Count)
board.cache_hierarchy.l1dcaches.ReadReq.misses::total          141                       # number of ReadReq misses (Count)
board.cache_hierarchy.l1dcaches.ReadReq.missLatency::processor.cores.core.data      7678594                       # number of ReadReq miss ticks (Tick)
board.cache_hierarchy.l1dcaches.ReadReq.missLatency::total      7678594                       # number of ReadReq miss ticks (Tick)
board.cache_hierarchy.l1dcaches.ReadReq.accesses::processor.cores.core.data         1365                       # number of ReadReq accesses(hits+misses) (Count)
board.cache_hierarchy.l1dcaches.ReadReq.accesses::total         1365                       # number of ReadReq accesses(hits+misses) (Count)
board.cache_hierarchy.l1dcaches.ReadReq.missRate::processor.cores.core.data     0.103297                       # miss rate for ReadReq accesses (Ratio)
board.cache_hierarchy.l1dcaches.ReadReq.missRate::total     0.103297                       # miss rate for ReadReq accesses (Ratio)
board.cache_hierarchy.l1dcaches.ReadReq.avgMissLatency::processor.cores.core.data 54458.113475                       # average ReadReq miss latency ((Tick/Count))
board.cache_hierarchy.l1dcaches.ReadReq.avgMissLatency::total 54458.113475                       # average ReadReq miss latency ((Tick/Count))
board.cache_hierarchy.l1dcaches.ReadReq.mshrMisses::processor.cores.core.data          141                       # number of ReadReq MSHR misses (Count)
board.cache_hierarchy.l1dcaches.ReadReq.mshrMisses::total          141                       # number of ReadReq MSHR misses (Count)
board.cache_hierarchy.l1dcaches.ReadReq.mshrMissLatency::processor.cores.core.data      7561141                       # number of ReadReq MSHR miss ticks (Tick)
board.cache_hierarchy.l1dcaches.ReadReq.mshrMissLatency::total      7561141                       # number of ReadReq MSHR miss ticks (Tick)
board.cache_hierarchy.l1dcaches.ReadReq.mshrMissRate::processor.cores.core.data     0.103297                       # mshr miss rate for ReadReq accesses (Ratio)
board.cache_hierarchy.l1dcaches.ReadReq.mshrMissRate::total     0.103297                       # mshr miss rate for ReadReq accesses (Ratio)
board.cache_hierarchy.l1dcaches.ReadReq.avgMshrMissLatency::processor.cores.core.data 53625.113475                       # average ReadReq mshr miss latency ((Tick/Count))
board.cache_hierarchy.l1dcaches.ReadReq.avgMshrMissLatency::total 53625.113475                       # average ReadReq mshr miss latency ((Tick/Count))
board.cache_hierarchy.l1dcaches.StoreCondReq.hits::processor.cores.core.data            8                       # number of StoreCondReq hits (Count)
board.cache_hierarchy.l1dcaches.StoreCondReq.hits::total            8                       # number of StoreCondReq hits (Count)
board.cache_hierarchy.l1dcaches.StoreCondReq.accesses::processor.cores.core.data            8                       # number of StoreCondReq accesses(hits+misses) (Count)
board.cache_hierarchy.l1dcaches.StoreCondReq.accesses::total            8                       # number of StoreCondReq accesses(hits+misses) (Count)
board.cache_hierarchy.l1dcaches.SwapReq.hits::processor.cores.core.data           18                       # number of SwapReq hits (Count)
board.cache_hierarchy.l1dcaches.SwapReq.hits::total           18                       # number of SwapReq hits (Count)
board.cache_hierarchy.l1dcaches.SwapReq.misses::processor.cores.core.data            1                       # number of SwapReq misses (Count)
board.cache_hierarchy.l1dcaches.SwapReq.misses::total            1                       # number of SwapReq misses (Count)
board.cache_hierarchy.l1dcaches.SwapReq.missLatency::processor.cores.core.data        48314                       # number of SwapReq miss ticks (Tick)
board.cache_hierarchy.l1dcaches.SwapReq.missLatency::total        48314                       # number of SwapReq miss ticks (Tick)
board.cache_hierarchy.l1dcaches.SwapReq.accesses::processor.cores.core.data           19                       # number of SwapReq accesses(hits+misses) (Count)
board.cache_hierarchy.l1dcaches.SwapReq.accesses::total           19                       # number of SwapReq accesses(hits+misses) (Count)
board.cache_hierarchy.l1dcaches.SwapReq.missRate::processor.cores.core.data     0.052632                       # miss rate for SwapReq accesses (Ratio)
board.cache_hierarchy.l1dcaches.SwapReq.missRate::total     0.052632                       # miss rate for SwapReq accesses (Ratio)
board.cache_hierarchy.l1dcaches.SwapReq.avgMissLatency::processor.cores.core.data        48314                       # average SwapReq miss latency ((Tick/Count))
board.cache_hierarchy.l1dcaches.SwapReq.avgMissLatency::total        48314                       # average SwapReq miss latency ((Tick/Count))
board.cache_hierarchy.l1dcaches.SwapReq.mshrMisses::processor.cores.core.data            1                       # number of SwapReq MSHR misses (Count)
board.cache_hierarchy.l1dcaches.SwapReq.mshrMisses::total            1                       # number of SwapReq MSHR misses (Count)
board.cache_hierarchy.l1dcaches.SwapReq.mshrMissLatency::processor.cores.core.data        47481                       # number of SwapReq MSHR miss ticks (Tick)
board.cache_hierarchy.l1dcaches.SwapReq.mshrMissLatency::total        47481                       # number of SwapReq MSHR miss ticks (Tick)
board.cache_hierarchy.l1dcaches.SwapReq.mshrMissRate::processor.cores.core.data     0.052632                       # mshr miss rate for SwapReq accesses (Ratio)
board.cache_hierarchy.l1dcaches.SwapReq.mshrMissRate::total     0.052632                       # mshr miss rate for SwapReq accesses (Ratio)
board.cache_hierarchy.l1dcaches.SwapReq.avgMshrMissLatency::processor.cores.core.data        47481                       # average SwapReq mshr miss latency ((Tick/Count))
board.cache_hierarchy.l1dcaches.SwapReq.avgMshrMissLatency::total        47481                       # average SwapReq mshr miss latency ((Tick/Count))
board.cache_hierarchy.l1dcaches.WriteReq.hits::processor.cores.core.data         1133                       # number of WriteReq hits (Count)
board.cache_hierarchy.l1dcaches.WriteReq.hits::total         1133                       # number of WriteReq hits (Count)
board.cache_hierarchy.l1dcaches.WriteReq.misses::processor.cores.core.data          177                       # number of WriteReq misses (Count)
board.cache_hierarchy.l1dcaches.WriteReq.misses::total          177                       # number of WriteReq misses (Count)
board.cache_hierarchy.l1dcaches.WriteReq.missLatency::processor.cores.core.data      9053877                       # number of WriteReq miss ticks (Tick)
board.cache_hierarchy.l1dcaches.WriteReq.missLatency::total      9053877                       # number of WriteReq miss ticks (Tick)
board.cache_hierarchy.l1dcaches.WriteReq.accesses::processor.cores.core.data         1310                       # number of WriteReq accesses(hits+misses) (Count)
board.cache_hierarchy.l1dcaches.WriteReq.accesses::total         1310                       # number of WriteReq accesses(hits+misses) (Count)
board.cache_hierarchy.l1dcaches.WriteReq.missRate::processor.cores.core.data     0.135115                       # miss rate for WriteReq accesses (Ratio)
board.cache_hierarchy.l1dcaches.WriteReq.missRate::total     0.135115                       # miss rate for WriteReq accesses (Ratio)
board.cache_hierarchy.l1dcaches.WriteReq.avgMissLatency::processor.cores.core.data 51151.847458                       # average WriteReq miss latency ((Tick/Count))
board.cache_hierarchy.l1dcaches.WriteReq.avgMissLatency::total 51151.847458                       # average WriteReq miss latency ((Tick/Count))
board.cache_hierarchy.l1dcaches.WriteReq.mshrHits::processor.cores.core.data           67                       # number of WriteReq MSHR hits (Count)
board.cache_hierarchy.l1dcaches.WriteReq.mshrHits::total           67                       # number of WriteReq MSHR hits (Count)
board.cache_hierarchy.l1dcaches.WriteReq.mshrMisses::processor.cores.core.data          110                       # number of WriteReq MSHR misses (Count)
board.cache_hierarchy.l1dcaches.WriteReq.mshrMisses::total          110                       # number of WriteReq MSHR misses (Count)
board.cache_hierarchy.l1dcaches.WriteReq.mshrMissLatency::processor.cores.core.data      5795181                       # number of WriteReq MSHR miss ticks (Tick)
board.cache_hierarchy.l1dcaches.WriteReq.mshrMissLatency::total      5795181                       # number of WriteReq MSHR miss ticks (Tick)
board.cache_hierarchy.l1dcaches.WriteReq.mshrMissRate::processor.cores.core.data     0.083969                       # mshr miss rate for WriteReq accesses (Ratio)
board.cache_hierarchy.l1dcaches.WriteReq.mshrMissRate::total     0.083969                       # mshr miss rate for WriteReq accesses (Ratio)
board.cache_hierarchy.l1dcaches.WriteReq.avgMshrMissLatency::processor.cores.core.data 52683.463636                       # average WriteReq mshr miss latency ((Tick/Count))
board.cache_hierarchy.l1dcaches.WriteReq.avgMshrMissLatency::total 52683.463636                       # average WriteReq mshr miss latency ((Tick/Count))
board.cache_hierarchy.l1dcaches.power_state.pwrStateResidencyTicks::UNDEFINED     42632107                       # Cumulative time (in ticks) in various power states (Tick)
board.cache_hierarchy.l1dcaches.prefetcher.demandMshrMisses          251                       # demands not covered by prefetchs (Count)
board.cache_hierarchy.l1dcaches.prefetcher.pfIssued           24                       # number of hwpf issued (Count)
board.cache_hierarchy.l1dcaches.prefetcher.pfUnused            2                       # number of HardPF blocks evicted w/o reference (Count)
board.cache_hierarchy.l1dcaches.prefetcher.pfUseful           20                       # number of useful prefetch (Count)
board.cache_hierarchy.l1dcaches.prefetcher.pfUsefulButMiss            0                       # number of hit on prefetch but cache block is not in an usable state (Count)
board.cache_hierarchy.l1dcaches.prefetcher.accuracy     0.833333                       # accuracy of the prefetcher (Count)
board.cache_hierarchy.l1dcaches.prefetcher.coverage     0.073801                       # coverage brought by this prefetcher (Count)
board.cache_hierarchy.l1dcaches.prefetcher.pfHitInCache            0                       # number of prefetches hitting in cache (Count)
board.cache_hierarchy.l1dcaches.prefetcher.pfHitInMSHR            0                       # number of prefetches hitting in a MSHR (Count)
board.cache_hierarchy.l1dcaches.prefetcher.pfHitInWB            0                       # number of prefetches hit in the Write Buffer (Count)
board.cache_hierarchy.l1dcaches.prefetcher.pfLate            0                       # number of late prefetches (hitting in cache, MSHR or WB) (Count)
board.cache_hierarchy.l1dcaches.prefetcher.pfIdentified           44                       # number of prefetch candidates identified (Count)
board.cache_hierarchy.l1dcaches.prefetcher.pfBufferHit           15                       # number of redundant prefetches already in prefetch queue (Count)
board.cache_hierarchy.l1dcaches.prefetcher.pfInCache            0                       # number of redundant prefetches already in cache/mshr dropped (Count)
board.cache_hierarchy.l1dcaches.prefetcher.pfRemovedDemand            0                       # number of prefetches dropped due to a demand for the same address (Count)
board.cache_hierarchy.l1dcaches.prefetcher.pfRemovedFull            0                       # number of prefetches dropped due to prefetch queue size (Count)
board.cache_hierarchy.l1dcaches.prefetcher.pfSpanPage            0                       # number of prefetches that crossed the page (Count)
board.cache_hierarchy.l1dcaches.prefetcher.pfUsefulSpanPage            0                       # number of prefetches that is useful and crossed the page (Count)
board.cache_hierarchy.l1dcaches.prefetcher.power_state.pwrStateResidencyTicks::UNDEFINED     42632107                       # Cumulative time (in ticks) in various power states (Tick)
board.cache_hierarchy.l1dcaches.tags.tagsInUse   106.949394                       # Average ticks per tags in use ((Tick/Count))
board.cache_hierarchy.l1dcaches.tags.totalRefs         2667                       # Total number of references to valid blocks. (Count)
board.cache_hierarchy.l1dcaches.tags.sampledRefs          278                       # Sample count of references to valid blocks. (Count)
board.cache_hierarchy.l1dcaches.tags.avgRefs     9.593525                       # Average number of references to valid blocks. ((Count/Count))
board.cache_hierarchy.l1dcaches.tags.warmupTick       199920                       # The tick when the warmup percentage was hit. (Tick)
board.cache_hierarchy.l1dcaches.tags.occupancies::cache_hierarchy.l1dcaches.prefetcher    10.977686                       # Average occupied blocks per tick, per requestor ((Count/Tick))
board.cache_hierarchy.l1dcaches.tags.occupancies::processor.cores.core.data    95.971708                       # Average occupied blocks per tick, per requestor ((Count/Tick))
board.cache_hierarchy.l1dcaches.tags.avgOccs::cache_hierarchy.l1dcaches.prefetcher     0.085763                       # Average percentage of cache occupancy ((Ratio/Tick))
board.cache_hierarchy.l1dcaches.tags.avgOccs::processor.cores.core.data     0.749779                       # Average percentage of cache occupancy ((Ratio/Tick))
board.cache_hierarchy.l1dcaches.tags.avgOccs::total     0.835542                       # Average percentage of cache occupancy ((Ratio/Tick))
board.cache_hierarchy.l1dcaches.tags.occupanciesTaskId::1022            6                       # Occupied blocks per task id (Count)
board.cache_hierarchy.l1dcaches.tags.occupanciesTaskId::1024          122                       # Occupied blocks per task id (Count)
board.cache_hierarchy.l1dcaches.tags.ageTaskId_1022::1            6                       # Occupied blocks per task id, per block age (Count)
board.cache_hierarchy.l1dcaches.tags.ageTaskId_1024::0           34                       # Occupied blocks per task id, per block age (Count)
board.cache_hierarchy.l1dcaches.tags.ageTaskId_1024::1           88                       # Occupied blocks per task id, per block age (Count)
board.cache_hierarchy.l1dcaches.tags.ratioOccsTaskId::1022     0.046875                       # Ratio of occupied blocks and all blocks, per task id (Ratio)
board.cache_hierarchy.l1dcaches.tags.ratioOccsTaskId::1024     0.953125                       # Ratio of occupied blocks and all blocks, per task id (Ratio)
board.cache_hierarchy.l1dcaches.tags.tagAccesses        11118                       # Number of tag accesses (Count)
board.cache_hierarchy.l1dcaches.tags.dataAccesses        11118                       # Number of data accesses (Count)
board.cache_hierarchy.l1dcaches.tags.power_state.pwrStateResidencyTicks::UNDEFINED     42632107                       # Cumulative time (in ticks) in various power states (Tick)
board.cache_hierarchy.l1icaches.demandHits::processor.cores.core.inst         3087                       # number of demand (read+write) hits (Count)
board.cache_hierarchy.l1icaches.demandHits::total         3087                       # number of demand (read+write) hits (Count)
board.cache_hierarchy.l1icaches.overallHits::processor.cores.core.inst         3087                       # number of overall hits (Count)
board.cache_hierarchy.l1icaches.overallHits::total         3087                       # number of overall hits (Count)
board.cache_hierarchy.l1icaches.demandMisses::processor.cores.core.inst          503                       # number of demand (read+write) misses (Count)
board.cache_hierarchy.l1icaches.demandMisses::total          503                       # number of demand (read+write) misses (Count)
board.cache_hierarchy.l1icaches.overallMisses::processor.cores.core.inst          503                       # number of overall misses (Count)
board.cache_hierarchy.l1icaches.overallMisses::total          503                       # number of overall misses (Count)
board.cache_hierarchy.l1icaches.demandMissLatency::processor.cores.core.inst     27318235                       # number of demand (read+write) miss ticks (Tick)
board.cache_hierarchy.l1icaches.demandMissLatency::total     27318235                       # number of demand (read+write) miss ticks (Tick)
board.cache_hierarchy.l1icaches.overallMissLatency::processor.cores.core.inst     27318235                       # number of overall miss ticks (Tick)
board.cache_hierarchy.l1icaches.overallMissLatency::total     27318235                       # number of overall miss ticks (Tick)
board.cache_hierarchy.l1icaches.demandAccesses::processor.cores.core.inst         3590                       # number of demand (read+write) accesses (Count)
board.cache_hierarchy.l1icaches.demandAccesses::total         3590                       # number of demand (read+write) accesses (Count)
board.cache_hierarchy.l1icaches.overallAccesses::processor.cores.core.inst         3590                       # number of overall (read+write) accesses (Count)
board.cache_hierarchy.l1icaches.overallAccesses::total         3590                       # number of overall (read+write) accesses (Count)
board.cache_hierarchy.l1icaches.demandMissRate::processor.cores.core.inst     0.140111                       # miss rate for demand accesses (Ratio)
board.cache_hierarchy.l1icaches.demandMissRate::total     0.140111                       # miss rate for demand accesses (Ratio)
board.cache_hierarchy.l1icaches.overallMissRate::processor.cores.core.inst     0.140111                       # miss rate for overall accesses (Ratio)
board.cache_hierarchy.l1icaches.overallMissRate::total     0.140111                       # miss rate for overall accesses (Ratio)
board.cache_hierarchy.l1icaches.demandAvgMissLatency::processor.cores.core.inst 54310.606362                       # average overall miss latency in ticks ((Tick/Count))
board.cache_hierarchy.l1icaches.demandAvgMissLatency::total 54310.606362                       # average overall miss latency in ticks ((Tick/Count))
board.cache_hierarchy.l1icaches.overallAvgMissLatency::processor.cores.core.inst 54310.606362                       # average overall miss latency ((Tick/Count))
board.cache_hierarchy.l1icaches.overallAvgMissLatency::total 54310.606362                       # average overall miss latency ((Tick/Count))
board.cache_hierarchy.l1icaches.blockedCycles::no_mshrs            0                       # number of cycles access was blocked (Cycle)
board.cache_hierarchy.l1icaches.blockedCycles::no_targets            0                       # number of cycles access was blocked (Cycle)
board.cache_hierarchy.l1icaches.blockedCauses::no_mshrs            0                       # number of times access was blocked (Count)
board.cache_hierarchy.l1icaches.blockedCauses::no_targets            0                       # number of times access was blocked (Count)
board.cache_hierarchy.l1icaches.avgBlocked::no_mshrs          nan                       # average number of cycles each access was blocked ((Cycle/Count))
board.cache_hierarchy.l1icaches.avgBlocked::no_targets          nan                       # average number of cycles each access was blocked ((Cycle/Count))
board.cache_hierarchy.l1icaches.writebacks::writebacks          374                       # number of writebacks (Count)
board.cache_hierarchy.l1icaches.writebacks::total          374                       # number of writebacks (Count)
board.cache_hierarchy.l1icaches.demandMshrMisses::processor.cores.core.inst          503                       # number of demand (read+write) MSHR misses (Count)
board.cache_hierarchy.l1icaches.demandMshrMisses::total          503                       # number of demand (read+write) MSHR misses (Count)
board.cache_hierarchy.l1icaches.overallMshrMisses::processor.cores.core.inst          503                       # number of overall MSHR misses (Count)
board.cache_hierarchy.l1icaches.overallMshrMisses::total          503                       # number of overall MSHR misses (Count)
board.cache_hierarchy.l1icaches.demandMshrMissLatency::processor.cores.core.inst     26900069                       # number of demand (read+write) MSHR miss ticks (Tick)
board.cache_hierarchy.l1icaches.demandMshrMissLatency::total     26900069                       # number of demand (read+write) MSHR miss ticks (Tick)
board.cache_hierarchy.l1icaches.overallMshrMissLatency::processor.cores.core.inst     26900069                       # number of overall MSHR miss ticks (Tick)
board.cache_hierarchy.l1icaches.overallMshrMissLatency::total     26900069                       # number of overall MSHR miss ticks (Tick)
board.cache_hierarchy.l1icaches.demandMshrMissRate::processor.cores.core.inst     0.140111                       # mshr miss ratio for demand accesses (Ratio)
board.cache_hierarchy.l1icaches.demandMshrMissRate::total     0.140111                       # mshr miss ratio for demand accesses (Ratio)
board.cache_hierarchy.l1icaches.overallMshrMissRate::processor.cores.core.inst     0.140111                       # mshr miss ratio for overall accesses (Ratio)
board.cache_hierarchy.l1icaches.overallMshrMissRate::total     0.140111                       # mshr miss ratio for overall accesses (Ratio)
board.cache_hierarchy.l1icaches.demandAvgMshrMissLatency::processor.cores.core.inst 53479.262425                       # average overall mshr miss latency ((Tick/Count))
board.cache_hierarchy.l1icaches.demandAvgMshrMissLatency::total 53479.262425                       # average overall mshr miss latency ((Tick/Count))
board.cache_hierarchy.l1icaches.overallAvgMshrMissLatency::processor.cores.core.inst 53479.262425                       # average overall mshr miss latency ((Tick/Count))
board.cache_hierarchy.l1icaches.overallAvgMshrMissLatency::total 53479.262425                       # average overall mshr miss latency ((Tick/Count))
board.cache_hierarchy.l1icaches.replacements          374                       # number of replacements (Count)
board.cache_hierarchy.l1icaches.ReadReq.hits::processor.cores.core.inst         3087                       # number of ReadReq hits (Count)
board.cache_hierarchy.l1icaches.ReadReq.hits::total         3087                       # number of ReadReq hits (Count)
board.cache_hierarchy.l1icaches.ReadReq.misses::processor.cores.core.inst          503                       # number of ReadReq misses (Count)
board.cache_hierarchy.l1icaches.ReadReq.misses::total          503                       # number of ReadReq misses (Count)
board.cache_hierarchy.l1icaches.ReadReq.missLatency::processor.cores.core.inst     27318235                       # number of ReadReq miss ticks (Tick)
board.cache_hierarchy.l1icaches.ReadReq.missLatency::total     27318235                       # number of ReadReq miss ticks (Tick)
board.cache_hierarchy.l1icaches.ReadReq.accesses::processor.cores.core.inst         3590                       # number of ReadReq accesses(hits+misses) (Count)
board.cache_hierarchy.l1icaches.ReadReq.accesses::total         3590                       # number of ReadReq accesses(hits+misses) (Count)
board.cache_hierarchy.l1icaches.ReadReq.missRate::processor.cores.core.inst     0.140111                       # miss rate for ReadReq accesses (Ratio)
board.cache_hierarchy.l1icaches.ReadReq.missRate::total     0.140111                       # miss rate for ReadReq accesses (Ratio)
board.cache_hierarchy.l1icaches.ReadReq.avgMissLatency::processor.cores.core.inst 54310.606362                       # average ReadReq miss latency ((Tick/Count))
board.cache_hierarchy.l1icaches.ReadReq.avgMissLatency::total 54310.606362                       # average ReadReq miss latency ((Tick/Count))
board.cache_hierarchy.l1icaches.ReadReq.mshrMisses::processor.cores.core.inst          503                       # number of ReadReq MSHR misses (Count)
board.cache_hierarchy.l1icaches.ReadReq.mshrMisses::total          503                       # number of ReadReq MSHR misses (Count)
board.cache_hierarchy.l1icaches.ReadReq.mshrMissLatency::processor.cores.core.inst     26900069                       # number of ReadReq MSHR miss ticks (Tick)
board.cache_hierarchy.l1icaches.ReadReq.mshrMissLatency::total     26900069                       # number of ReadReq MSHR miss ticks (Tick)
board.cache_hierarchy.l1icaches.ReadReq.mshrMissRate::processor.cores.core.inst     0.140111                       # mshr miss rate for ReadReq accesses (Ratio)
board.cache_hierarchy.l1icaches.ReadReq.mshrMissRate::total     0.140111                       # mshr miss rate for ReadReq accesses (Ratio)
board.cache_hierarchy.l1icaches.ReadReq.avgMshrMissLatency::processor.cores.core.inst 53479.262425                       # average ReadReq mshr miss latency ((Tick/Count))
board.cache_hierarchy.l1icaches.ReadReq.avgMshrMissLatency::total 53479.262425                       # average ReadReq mshr miss latency ((Tick/Count))
board.cache_hierarchy.l1icaches.power_state.pwrStateResidencyTicks::UNDEFINED     42632107                       # Cumulative time (in ticks) in various power states (Tick)
board.cache_hierarchy.l1icaches.prefetcher.demandMshrMisses          503                       # demands not covered by prefetchs (Count)
board.cache_hierarchy.l1icaches.prefetcher.pfIssued            0                       # number of hwpf issued (Count)
board.cache_hierarchy.l1icaches.prefetcher.pfUseful            0                       # number of useful prefetch (Count)
board.cache_hierarchy.l1icaches.prefetcher.pfUsefulButMiss            0                       # number of hit on prefetch but cache block is not in an usable state (Count)
board.cache_hierarchy.l1icaches.prefetcher.accuracy          nan                       # accuracy of the prefetcher (Count)
board.cache_hierarchy.l1icaches.prefetcher.coverage            0                       # coverage brought by this prefetcher (Count)
board.cache_hierarchy.l1icaches.prefetcher.pfHitInCache            0                       # number of prefetches hitting in cache (Count)
board.cache_hierarchy.l1icaches.prefetcher.pfHitInMSHR            0                       # number of prefetches hitting in a MSHR (Count)
board.cache_hierarchy.l1icaches.prefetcher.pfHitInWB            0                       # number of prefetches hit in the Write Buffer (Count)
board.cache_hierarchy.l1icaches.prefetcher.pfLate            0                       # number of late prefetches (hitting in cache, MSHR or WB) (Count)
board.cache_hierarchy.l1icaches.prefetcher.pfIdentified            0                       # number of prefetch candidates identified (Count)
board.cache_hierarchy.l1icaches.prefetcher.pfBufferHit            0                       # number of redundant prefetches already in prefetch queue (Count)
board.cache_hierarchy.l1icaches.prefetcher.pfInCache            0                       # number of redundant prefetches already in cache/mshr dropped (Count)
board.cache_hierarchy.l1icaches.prefetcher.pfRemovedDemand            0                       # number of prefetches dropped due to a demand for the same address (Count)
board.cache_hierarchy.l1icaches.prefetcher.pfRemovedFull            0                       # number of prefetches dropped due to prefetch queue size (Count)
board.cache_hierarchy.l1icaches.prefetcher.pfSpanPage            0                       # number of prefetches that crossed the page (Count)
board.cache_hierarchy.l1icaches.prefetcher.pfUsefulSpanPage            0                       # number of prefetches that is useful and crossed the page (Count)
board.cache_hierarchy.l1icaches.prefetcher.power_state.pwrStateResidencyTicks::UNDEFINED     42632107                       # Cumulative time (in ticks) in various power states (Tick)
board.cache_hierarchy.l1icaches.tags.tagsInUse   107.274781                       # Average ticks per tags in use ((Tick/Count))
board.cache_hierarchy.l1icaches.tags.totalRefs         3589                       # Total number of references to valid blocks. (Count)
board.cache_hierarchy.l1icaches.tags.sampledRefs          502                       # Sample count of references to valid blocks. (Count)
board.cache_hierarchy.l1icaches.tags.avgRefs     7.149402                       # Average number of references to valid blocks. ((Count/Count))
board.cache_hierarchy.l1icaches.tags.warmupTick        74970                       # The tick when the warmup percentage was hit. (Tick)
board.cache_hierarchy.l1icaches.tags.occupancies::processor.cores.core.inst   107.274781                       # Average occupied blocks per tick, per requestor ((Count/Tick))
board.cache_hierarchy.l1icaches.tags.avgOccs::processor.cores.core.inst     0.838084                       # Average percentage of cache occupancy ((Ratio/Tick))
board.cache_hierarchy.l1icaches.tags.avgOccs::total     0.838084                       # Average percentage of cache occupancy ((Ratio/Tick))
board.cache_hierarchy.l1icaches.tags.occupanciesTaskId::1024          128                       # Occupied blocks per task id (Count)
board.cache_hierarchy.l1icaches.tags.ageTaskId_1024::0          108                       # Occupied blocks per task id, per block age (Count)
board.cache_hierarchy.l1icaches.tags.ageTaskId_1024::1           20                       # Occupied blocks per task id, per block age (Count)
board.cache_hierarchy.l1icaches.tags.ratioOccsTaskId::1024            1                       # Ratio of occupied blocks and all blocks, per task id (Ratio)
board.cache_hierarchy.l1icaches.tags.tagAccesses        14862                       # Number of tag accesses (Count)
board.cache_hierarchy.l1icaches.tags.dataAccesses        14862                       # Number of data accesses (Count)
board.cache_hierarchy.l1icaches.tags.power_state.pwrStateResidencyTicks::UNDEFINED     42632107                       # Cumulative time (in ticks) in various power states (Tick)
board.cache_hierarchy.membus.transDist::ReadResp          669                       # Transaction distribution (Count)
board.cache_hierarchy.membus.transDist::WritebackDirty           79                       # Transaction distribution (Count)
board.cache_hierarchy.membus.transDist::WritebackClean          445                       # Transaction distribution (Count)
board.cache_hierarchy.membus.transDist::ReadExReq          111                       # Transaction distribution (Count)
board.cache_hierarchy.membus.transDist::ReadExResp          111                       # Transaction distribution (Count)
board.cache_hierarchy.membus.transDist::ReadSharedReq          670                       # Transaction distribution (Count)
board.cache_hierarchy.membus.pktCount_board.cache_hierarchy.l1icaches.mem_side_port::board.memory.mem_ctrl.port         1379                       # Packet count per connected requestor and responder (Count)
board.cache_hierarchy.membus.pktCount_board.cache_hierarchy.l1icaches.mem_side_port::total         1379                       # Packet count per connected requestor and responder (Count)
board.cache_hierarchy.membus.pktCount_board.cache_hierarchy.l1dcaches.mem_side_port::board.memory.mem_ctrl.port          706                       # Packet count per connected requestor and responder (Count)
board.cache_hierarchy.membus.pktCount_board.cache_hierarchy.l1dcaches.mem_side_port::total          706                       # Packet count per connected requestor and responder (Count)
board.cache_hierarchy.membus.pktCount::total         2085                       # Packet count per connected requestor and responder (Count)
board.cache_hierarchy.membus.pktSize_board.cache_hierarchy.l1icaches.mem_side_port::board.memory.mem_ctrl.port        56064                       # Cumulative packet size per connected requestor and responder (Byte)
board.cache_hierarchy.membus.pktSize_board.cache_hierarchy.l1icaches.mem_side_port::total        56064                       # Cumulative packet size per connected requestor and responder (Byte)
board.cache_hierarchy.membus.pktSize_board.cache_hierarchy.l1dcaches.mem_side_port::board.memory.mem_ctrl.port        27392                       # Cumulative packet size per connected requestor and responder (Byte)
board.cache_hierarchy.membus.pktSize_board.cache_hierarchy.l1dcaches.mem_side_port::total        27392                       # Cumulative packet size per connected requestor and responder (Byte)
board.cache_hierarchy.membus.pktSize::total        83456                       # Cumulative packet size per connected requestor and responder (Byte)
board.cache_hierarchy.membus.snoops                 0                       # Total snoops (Count)
board.cache_hierarchy.membus.snoopTraffic            0                       # Total snoop traffic (Byte)
board.cache_hierarchy.membus.snoopFanout::samples          781                       # Request fanout histogram (Count)
board.cache_hierarchy.membus.snoopFanout::mean            0                       # Request fanout histogram (Count)
board.cache_hierarchy.membus.snoopFanout::stdev            0                       # Request fanout histogram (Count)
board.cache_hierarchy.membus.snoopFanout::underflows            0      0.00%      0.00% # Request fanout histogram (Count)
board.cache_hierarchy.membus.snoopFanout::0          781    100.00%    100.00% # Request fanout histogram (Count)
board.cache_hierarchy.membus.snoopFanout::1            0      0.00%    100.00% # Request fanout histogram (Count)
board.cache_hierarchy.membus.snoopFanout::2            0      0.00%    100.00% # Request fanout histogram (Count)
board.cache_hierarchy.membus.snoopFanout::3            0      0.00%    100.00% # Request fanout histogram (Count)
board.cache_hierarchy.membus.snoopFanout::4            0      0.00%    100.00% # Request fanout histogram (Count)
board.cache_hierarchy.membus.snoopFanout::overflows            0      0.00%    100.00% # Request fanout histogram (Count)
board.cache_hierarchy.membus.snoopFanout::min_value            0                       # Request fanout histogram (Count)
board.cache_hierarchy.membus.snoopFanout::max_value            0                       # Request fanout histogram (Count)
board.cache_hierarchy.membus.snoopFanout::total          781                       # Request fanout histogram (Count)
board.cache_hierarchy.membus.badaddr_responder.power_state.pwrStateResidencyTicks::UNDEFINED     42632107                       # Cumulative time (in ticks) in various power states (Tick)
board.cache_hierarchy.membus.power_state.pwrStateResidencyTicks::UNDEFINED     42632107                       # Cumulative time (in ticks) in various power states (Tick)
board.cache_hierarchy.membus.reqLayer0.occupancy      1960049                       # Layer occupancy (ticks) (Tick)
board.cache_hierarchy.membus.reqLayer0.utilization          0.0                       # Layer utilization (Ratio)
board.cache_hierarchy.membus.respLayer1.occupancy      1666066                       # Layer occupancy (ticks) (Tick)
board.cache_hierarchy.membus.respLayer1.utilization          0.0                       # Layer utilization (Ratio)
board.cache_hierarchy.membus.respLayer2.occupancy       923559                       # Layer occupancy (ticks) (Tick)
board.cache_hierarchy.membus.respLayer2.utilization          0.0                       # Layer utilization (Ratio)
board.cache_hierarchy.membus.snoop_filter.totRequests         1305                       # Total number of requests made to the snoop filter. (Count)
board.cache_hierarchy.membus.snoop_filter.hitSingleRequests          524                       # Number of requests hitting in the snoop filter with a single holder of the requested data. (Count)
board.cache_hierarchy.membus.snoop_filter.hitMultiRequests            0                       # Number of requests hitting in the snoop filter with multiple (>1) holders of the requested data. (Count)
board.cache_hierarchy.membus.snoop_filter.totSnoops            0                       # Total number of snoops made to the snoop filter. (Count)
board.cache_hierarchy.membus.snoop_filter.hitSingleSnoops            0                       # Number of snoops hitting in the snoop filter with a single holder of the requested data. (Count)
board.cache_hierarchy.membus.snoop_filter.hitMultiSnoops            0                       # Number of snoops hitting in the snoop filter with multiple (>1) holders of the requested data. (Count)
board.clk_domain.clock                            833                       # Clock period in ticks (Tick)
board.clk_domain.voltage_domain.voltage             1                       # Voltage in Volts (Volt)
board.memory.mem_ctrl.avgPriority_writebacks::samples       520.00                       # Average QoS priority value for accepted requests (Count)
board.memory.mem_ctrl.avgPriority_cache_hierarchy.l1dcaches.prefetcher::samples        24.00                       # Average QoS priority value for accepted requests (Count)
board.memory.mem_ctrl.avgPriority_processor.cores.core.inst::samples       477.00                       # Average QoS priority value for accepted requests (Count)
board.memory.mem_ctrl.avgPriority_processor.cores.core.data::samples       241.00                       # Average QoS priority value for accepted requests (Count)
board.memory.mem_ctrl.priorityMinLatency 0.000000017492                       # per QoS priority minimum request to response latency (Second)
board.memory.mem_ctrl.priorityMaxLatency 0.000024421892                       # per QoS priority maximum request to response latency (Second)
board.memory.mem_ctrl.numReadWriteTurnArounds           28                       # Number of turnarounds from READ to WRITE (Count)
board.memory.mem_ctrl.numWriteReadTurnArounds           28                       # Number of turnarounds from WRITE to READ (Count)
board.memory.mem_ctrl.numStayReadState           1975                       # Number of times bus staying in READ state (Count)
board.memory.mem_ctrl.numStayWriteState           436                       # Number of times bus staying in WRITE state (Count)
board.memory.mem_ctrl.readReqs                    781                       # Number of read requests accepted (Count)
board.memory.mem_ctrl.writeReqs                   524                       # Number of write requests accepted (Count)
board.memory.mem_ctrl.readBursts                  781                       # Number of controller read bursts, including those serviced by the write queue (Count)
board.memory.mem_ctrl.writeBursts                 524                       # Number of controller write bursts, including those merged in the write queue (Count)
board.memory.mem_ctrl.servicedByWrQ                39                       # Number of controller read bursts serviced by the write queue (Count)
board.memory.mem_ctrl.mergedWrBursts                4                       # Number of controller write bursts merged with an existing one (Count)
board.memory.mem_ctrl.neitherReadNorWriteReqs            0                       # Number of requests that are neither read nor write (Count)
board.memory.mem_ctrl.avgRdQLen                  1.22                       # Average read queue length when enqueuing ((Count/Tick))
board.memory.mem_ctrl.avgWrQLen                 44.50                       # Average write queue length when enqueuing ((Count/Tick))
board.memory.mem_ctrl.numRdRetry                    0                       # Number of times read queue was full causing retry (Count)
board.memory.mem_ctrl.numWrRetry                    0                       # Number of times write queue was full causing retry (Count)
board.memory.mem_ctrl.readPktSize::0                0                       # Read request sizes (log2) (Count)
board.memory.mem_ctrl.readPktSize::1                0                       # Read request sizes (log2) (Count)
board.memory.mem_ctrl.readPktSize::2                0                       # Read request sizes (log2) (Count)
board.memory.mem_ctrl.readPktSize::3                0                       # Read request sizes (log2) (Count)
board.memory.mem_ctrl.readPktSize::4                0                       # Read request sizes (log2) (Count)
board.memory.mem_ctrl.readPktSize::5                0                       # Read request sizes (log2) (Count)
board.memory.mem_ctrl.readPktSize::6              781                       # Read request sizes (log2) (Count)
board.memory.mem_ctrl.writePktSize::0               0                       # Write request sizes (log2) (Count)
board.memory.mem_ctrl.writePktSize::1               0                       # Write request sizes (log2) (Count)
board.memory.mem_ctrl.writePktSize::2               0                       # Write request sizes (log2) (Count)
board.memory.mem_ctrl.writePktSize::3               0                       # Write request sizes (log2) (Count)
board.memory.mem_ctrl.writePktSize::4               0                       # Write request sizes (log2) (Count)
board.memory.mem_ctrl.writePktSize::5               0                       # Write request sizes (log2) (Count)
board.memory.mem_ctrl.writePktSize::6             524                       # Write request sizes (log2) (Count)
board.memory.mem_ctrl.rdQLenPdf::0                599                       # What read queue length does an incoming req see (Count)
board.memory.mem_ctrl.rdQLenPdf::1                117                       # What read queue length does an incoming req see (Count)
board.memory.mem_ctrl.rdQLenPdf::2                 14                       # What read queue length does an incoming req see (Count)
board.memory.mem_ctrl.rdQLenPdf::3                  6                       # What read queue length does an incoming req see (Count)
board.memory.mem_ctrl.rdQLenPdf::4                  6                       # What read queue length does an incoming req see (Count)
board.memory.mem_ctrl.rdQLenPdf::5                  0                       # What read queue length does an incoming req see (Count)
board.memory.mem_ctrl.rdQLenPdf::6                  0                       # What read queue length does an incoming req see (Count)
board.memory.mem_ctrl.rdQLenPdf::7                  0                       # What read queue length does an incoming req see (Count)
board.memory.mem_ctrl.rdQLenPdf::8                  0                       # What read queue length does an incoming req see (Count)
board.memory.mem_ctrl.rdQLenPdf::9                  0                       # What read queue length does an incoming req see (Count)
board.memory.mem_ctrl.rdQLenPdf::10                 0                       # What read queue length does an incoming req see (Count)
board.memory.mem_ctrl.rdQLenPdf::11                 0                       # What read queue length does an incoming req see (Count)
board.memory.mem_ctrl.rdQLenPdf::12                 0                       # What read queue length does an incoming req see (Count)
board.memory.mem_ctrl.rdQLenPdf::13                 0                       # What read queue length does an incoming req see (Count)
board.memory.mem_ctrl.rdQLenPdf::14                 0                       # What read queue length does an incoming req see (Count)
board.memory.mem_ctrl.rdQLenPdf::15                 0                       # What read queue length does an incoming req see (Count)
board.memory.mem_ctrl.rdQLenPdf::16                 0                       # What read queue length does an incoming req see (Count)
board.memory.mem_ctrl.rdQLenPdf::17                 0                       # What read queue length does an incoming req see (Count)
board.memory.mem_ctrl.rdQLenPdf::18                 0                       # What read queue length does an incoming req see (Count)
board.memory.mem_ctrl.rdQLenPdf::19                 0                       # What read queue length does an incoming req see (Count)
board.memory.mem_ctrl.rdQLenPdf::20                 0                       # What read queue length does an incoming req see (Count)
board.memory.mem_ctrl.rdQLenPdf::21                 0                       # What read queue length does an incoming req see (Count)
board.memory.mem_ctrl.rdQLenPdf::22                 0                       # What read queue length does an incoming req see (Count)
board.memory.mem_ctrl.rdQLenPdf::23                 0                       # What read queue length does an incoming req see (Count)
board.memory.mem_ctrl.rdQLenPdf::24                 0                       # What read queue length does an incoming req see (Count)
board.memory.mem_ctrl.rdQLenPdf::25                 0                       # What read queue length does an incoming req see (Count)
board.memory.mem_ctrl.rdQLenPdf::26                 0                       # What read queue length does an incoming req see (Count)
board.memory.mem_ctrl.rdQLenPdf::27                 0                       # What read queue length does an incoming req see (Count)
board.memory.mem_ctrl.rdQLenPdf::28                 0                       # What read queue length does an incoming req see (Count)
board.memory.mem_ctrl.rdQLenPdf::29                 0                       # What read queue length does an incoming req see (Count)
board.memory.mem_ctrl.rdQLenPdf::30                 0                       # What read queue length does an incoming req see (Count)
board.memory.mem_ctrl.rdQLenPdf::31                 0                       # What read queue length does an incoming req see (Count)
board.memory.mem_ctrl.rdQLenPdf::32                 0                       # What read queue length does an incoming req see (Count)
board.memory.mem_ctrl.rdQLenPdf::33                 0                       # What read queue length does an incoming req see (Count)
board.memory.mem_ctrl.rdQLenPdf::34                 0                       # What read queue length does an incoming req see (Count)
board.memory.mem_ctrl.rdQLenPdf::35                 0                       # What read queue length does an incoming req see (Count)
board.memory.mem_ctrl.rdQLenPdf::36                 0                       # What read queue length does an incoming req see (Count)
board.memory.mem_ctrl.rdQLenPdf::37                 0                       # What read queue length does an incoming req see (Count)
board.memory.mem_ctrl.rdQLenPdf::38                 0                       # What read queue length does an incoming req see (Count)
board.memory.mem_ctrl.rdQLenPdf::39                 0                       # What read queue length does an incoming req see (Count)
board.memory.mem_ctrl.rdQLenPdf::40                 0                       # What read queue length does an incoming req see (Count)
board.memory.mem_ctrl.rdQLenPdf::41                 0                       # What read queue length does an incoming req see (Count)
board.memory.mem_ctrl.rdQLenPdf::42                 0                       # What read queue length does an incoming req see (Count)
board.memory.mem_ctrl.rdQLenPdf::43                 0                       # What read queue length does an incoming req see (Count)
board.memory.mem_ctrl.rdQLenPdf::44                 0                       # What read queue length does an incoming req see (Count)
board.memory.mem_ctrl.rdQLenPdf::45                 0                       # What read queue length does an incoming req see (Count)
board.memory.mem_ctrl.rdQLenPdf::46                 0                       # What read queue length does an incoming req see (Count)
board.memory.mem_ctrl.rdQLenPdf::47                 0                       # What read queue length does an incoming req see (Count)
board.memory.mem_ctrl.rdQLenPdf::48                 0                       # What read queue length does an incoming req see (Count)
board.memory.mem_ctrl.rdQLenPdf::49                 0                       # What read queue length does an incoming req see (Count)
board.memory.mem_ctrl.rdQLenPdf::50                 0                       # What read queue length does an incoming req see (Count)
board.memory.mem_ctrl.rdQLenPdf::51                 0                       # What read queue length does an incoming req see (Count)
board.memory.mem_ctrl.rdQLenPdf::52                 0                       # What read queue length does an incoming req see (Count)
board.memory.mem_ctrl.rdQLenPdf::53                 0                       # What read queue length does an incoming req see (Count)
board.memory.mem_ctrl.rdQLenPdf::54                 0                       # What read queue length does an incoming req see (Count)
board.memory.mem_ctrl.rdQLenPdf::55                 0                       # What read queue length does an incoming req see (Count)
board.memory.mem_ctrl.rdQLenPdf::56                 0                       # What read queue length does an incoming req see (Count)
board.memory.mem_ctrl.rdQLenPdf::57                 0                       # What read queue length does an incoming req see (Count)
board.memory.mem_ctrl.rdQLenPdf::58                 0                       # What read queue length does an incoming req see (Count)
board.memory.mem_ctrl.rdQLenPdf::59                 0                       # What read queue length does an incoming req see (Count)
board.memory.mem_ctrl.rdQLenPdf::60                 0                       # What read queue length does an incoming req see (Count)
board.memory.mem_ctrl.rdQLenPdf::61                 0                       # What read queue length does an incoming req see (Count)
board.memory.mem_ctrl.rdQLenPdf::62                 0                       # What read queue length does an incoming req see (Count)
board.memory.mem_ctrl.rdQLenPdf::63                 0                       # What read queue length does an incoming req see (Count)
board.memory.mem_ctrl.wrQLenPdf::0                  1                       # What write queue length does an incoming req see (Count)
board.memory.mem_ctrl.wrQLenPdf::1                  1                       # What write queue length does an incoming req see (Count)
board.memory.mem_ctrl.wrQLenPdf::2                  1                       # What write queue length does an incoming req see (Count)
board.memory.mem_ctrl.wrQLenPdf::3                  1                       # What write queue length does an incoming req see (Count)
board.memory.mem_ctrl.wrQLenPdf::4                  1                       # What write queue length does an incoming req see (Count)
board.memory.mem_ctrl.wrQLenPdf::5                  1                       # What write queue length does an incoming req see (Count)
board.memory.mem_ctrl.wrQLenPdf::6                  1                       # What write queue length does an incoming req see (Count)
board.memory.mem_ctrl.wrQLenPdf::7                  1                       # What write queue length does an incoming req see (Count)
board.memory.mem_ctrl.wrQLenPdf::8                  1                       # What write queue length does an incoming req see (Count)
board.memory.mem_ctrl.wrQLenPdf::9                  1                       # What write queue length does an incoming req see (Count)
board.memory.mem_ctrl.wrQLenPdf::10                 1                       # What write queue length does an incoming req see (Count)
board.memory.mem_ctrl.wrQLenPdf::11                 1                       # What write queue length does an incoming req see (Count)
board.memory.mem_ctrl.wrQLenPdf::12                 1                       # What write queue length does an incoming req see (Count)
board.memory.mem_ctrl.wrQLenPdf::13                 1                       # What write queue length does an incoming req see (Count)
board.memory.mem_ctrl.wrQLenPdf::14                 1                       # What write queue length does an incoming req see (Count)
board.memory.mem_ctrl.wrQLenPdf::15                 1                       # What write queue length does an incoming req see (Count)
board.memory.mem_ctrl.wrQLenPdf::16                 1                       # What write queue length does an incoming req see (Count)
board.memory.mem_ctrl.wrQLenPdf::17                 1                       # What write queue length does an incoming req see (Count)
board.memory.mem_ctrl.wrQLenPdf::18                 1                       # What write queue length does an incoming req see (Count)
board.memory.mem_ctrl.wrQLenPdf::19                 1                       # What write queue length does an incoming req see (Count)
board.memory.mem_ctrl.wrQLenPdf::20                 1                       # What write queue length does an incoming req see (Count)
board.memory.mem_ctrl.wrQLenPdf::21                 1                       # What write queue length does an incoming req see (Count)
board.memory.mem_ctrl.wrQLenPdf::22                 1                       # What write queue length does an incoming req see (Count)
board.memory.mem_ctrl.wrQLenPdf::23                 1                       # What write queue length does an incoming req see (Count)
board.memory.mem_ctrl.wrQLenPdf::24                 1                       # What write queue length does an incoming req see (Count)
board.memory.mem_ctrl.wrQLenPdf::25                 1                       # What write queue length does an incoming req see (Count)
board.memory.mem_ctrl.wrQLenPdf::26                 1                       # What write queue length does an incoming req see (Count)
board.memory.mem_ctrl.wrQLenPdf::27                 1                       # What write queue length does an incoming req see (Count)
board.memory.mem_ctrl.wrQLenPdf::28                 1                       # What write queue length does an incoming req see (Count)
board.memory.mem_ctrl.wrQLenPdf::29                 1                       # What write queue length does an incoming req see (Count)
board.memory.mem_ctrl.wrQLenPdf::30                 1                       # What write queue length does an incoming req see (Count)
board.memory.mem_ctrl.wrQLenPdf::31                 1                       # What write queue length does an incoming req see (Count)
board.memory.mem_ctrl.wrQLenPdf::32                 1                       # What write queue length does an incoming req see (Count)
board.memory.mem_ctrl.wrQLenPdf::33                 1                       # What write queue length does an incoming req see (Count)
board.memory.mem_ctrl.wrQLenPdf::34                 1                       # What write queue length does an incoming req see (Count)
board.memory.mem_ctrl.wrQLenPdf::35                 1                       # What write queue length does an incoming req see (Count)
board.memory.mem_ctrl.wrQLenPdf::36                 1                       # What write queue length does an incoming req see (Count)
board.memory.mem_ctrl.wrQLenPdf::37                 1                       # What write queue length does an incoming req see (Count)
board.memory.mem_ctrl.wrQLenPdf::38                 1                       # What write queue length does an incoming req see (Count)
board.memory.mem_ctrl.wrQLenPdf::39                 1                       # What write queue length does an incoming req see (Count)
board.memory.mem_ctrl.wrQLenPdf::40                 1                       # What write queue length does an incoming req see (Count)
board.memory.mem_ctrl.wrQLenPdf::41                 1                       # What write queue length does an incoming req see (Count)
board.memory.mem_ctrl.wrQLenPdf::42                 1                       # What write queue length does an incoming req see (Count)
board.memory.mem_ctrl.wrQLenPdf::43                 1                       # What write queue length does an incoming req see (Count)
board.memory.mem_ctrl.wrQLenPdf::44                 1                       # What write queue length does an incoming req see (Count)
board.memory.mem_ctrl.wrQLenPdf::45                 1                       # What write queue length does an incoming req see (Count)
board.memory.mem_ctrl.wrQLenPdf::46                 1                       # What write queue length does an incoming req see (Count)
board.memory.mem_ctrl.wrQLenPdf::47                 7                       # What write queue length does an incoming req see (Count)
board.memory.mem_ctrl.wrQLenPdf::48                 8                       # What write queue length does an incoming req see (Count)
board.memory.mem_ctrl.wrQLenPdf::49                29                       # What write queue length does an incoming req see (Count)
board.memory.mem_ctrl.wrQLenPdf::50                29                       # What write queue length does an incoming req see (Count)
board.memory.mem_ctrl.wrQLenPdf::51                30                       # What write queue length does an incoming req see (Count)
board.memory.mem_ctrl.wrQLenPdf::52                29                       # What write queue length does an incoming req see (Count)
board.memory.mem_ctrl.wrQLenPdf::53                29                       # What write queue length does an incoming req see (Count)
board.memory.mem_ctrl.wrQLenPdf::54                29                       # What write queue length does an incoming req see (Count)
board.memory.mem_ctrl.wrQLenPdf::55                31                       # What write queue length does an incoming req see (Count)
board.memory.mem_ctrl.wrQLenPdf::56                28                       # What write queue length does an incoming req see (Count)
board.memory.mem_ctrl.wrQLenPdf::57                28                       # What write queue length does an incoming req see (Count)
board.memory.mem_ctrl.wrQLenPdf::58                28                       # What write queue length does an incoming req see (Count)
board.memory.mem_ctrl.wrQLenPdf::59                28                       # What write queue length does an incoming req see (Count)
board.memory.mem_ctrl.wrQLenPdf::60                28                       # What write queue length does an incoming req see (Count)
board.memory.mem_ctrl.wrQLenPdf::61                28                       # What write queue length does an incoming req see (Count)
board.memory.mem_ctrl.wrQLenPdf::62                28                       # What write queue length does an incoming req see (Count)
board.memory.mem_ctrl.wrQLenPdf::63                28                       # What write queue length does an incoming req see (Count)
board.memory.mem_ctrl.wrQLenPdf::64                28                       # What write queue length does an incoming req see (Count)
board.memory.mem_ctrl.wrQLenPdf::65                 0                       # What write queue length does an incoming req see (Count)
board.memory.mem_ctrl.wrQLenPdf::66                 0                       # What write queue length does an incoming req see (Count)
board.memory.mem_ctrl.wrQLenPdf::67                 0                       # What write queue length does an incoming req see (Count)
board.memory.mem_ctrl.wrQLenPdf::68                 0                       # What write queue length does an incoming req see (Count)
board.memory.mem_ctrl.wrQLenPdf::69                 0                       # What write queue length does an incoming req see (Count)
board.memory.mem_ctrl.wrQLenPdf::70                 0                       # What write queue length does an incoming req see (Count)
board.memory.mem_ctrl.wrQLenPdf::71                 0                       # What write queue length does an incoming req see (Count)
board.memory.mem_ctrl.wrQLenPdf::72                 0                       # What write queue length does an incoming req see (Count)
board.memory.mem_ctrl.wrQLenPdf::73                 0                       # What write queue length does an incoming req see (Count)
board.memory.mem_ctrl.wrQLenPdf::74                 0                       # What write queue length does an incoming req see (Count)
board.memory.mem_ctrl.wrQLenPdf::75                 0                       # What write queue length does an incoming req see (Count)
board.memory.mem_ctrl.wrQLenPdf::76                 0                       # What write queue length does an incoming req see (Count)
board.memory.mem_ctrl.wrQLenPdf::77                 0                       # What write queue length does an incoming req see (Count)
[...]
board.memory.mem_ctrl.dram.rank0.actBackEnergy 19746470.251200                       # Energy for active background per rank (pJ) (Joule)
board.memory.mem_ctrl.dram.rank0.preBackEnergy 283038.739200                       # Energy for precharge background per rank (pJ) (Joule)
board.memory.mem_ctrl.dram.rank0.actPowerDownEnergy            0                       # Energy for active power-down per rank (pJ) (Joule)
board.memory.mem_ctrl.dram.rank0.prePowerDownEnergy            0                       # Energy for precharge power-down per rank (pJ) (Joule)
board.memory.mem_ctrl.dram.rank0.selfRefreshEnergy            0                       # Energy for self refresh per rank (pJ) (Joule)
board.memory.mem_ctrl.dram.rank0.totalEnergy 25517716.828800                       # Total energy per rank (pJ) (Joule)
board.memory.mem_ctrl.dram.rank0.averagePower   598.556314                       # Core power per rank (mW) (Watt)
board.memory.mem_ctrl.dram.rank0.totalIdleTime            0                       # Total Idle time Per DRAM Rank (Tick)
board.memory.mem_ctrl.dram.rank0.pwrStateTime::IDLE       729663                       # Time in different power states (Tick)
board.memory.mem_ctrl.dram.rank0.pwrStateTime::REF      1750000                       # Time in different power states (Tick)
board.memory.mem_ctrl.dram.rank0.pwrStateTime::SREF            0                       # Time in different power states (Tick)
board.memory.mem_ctrl.dram.rank0.pwrStateTime::PRE_PDN            0                       # Time in different power states (Tick)
board.memory.mem_ctrl.dram.rank0.pwrStateTime::ACT     40152444                       # Time in different power states (Tick)
board.memory.mem_ctrl.dram.rank0.pwrStateTime::ACT_PDN            0                       # Time in different power states (Tick)
board.memory.mem_ctrl.dram.rank1.actEnergy 126309.456000                       # Energy for activate commands per rank (pJ) (Joule)
board.memory.mem_ctrl.dram.rank1.preEnergy 211973.176800                       # Energy for precharge commands per rank (pJ) (Joule)
board.memory.mem_ctrl.dram.rank1.readEnergy 935329.718400                       # Energy for read commands per rank (pJ) (Joule)
board.memory.mem_ctrl.dram.rank1.writeEnergy 419911.968000                       # Energy for write commands per rank (pJ) (Joule)
board.memory.mem_ctrl.dram.rank1.refreshEnergy 3379277.748000                       # Energy for refresh commands per rank (pJ) (Joule)
board.memory.mem_ctrl.dram.rank1.actBackEnergy 19778371.485600                       # Energy for active background per rank (pJ) (Joule)
board.memory.mem_ctrl.dram.rank1.preBackEnergy 261015.552000                       # Energy for precharge background per rank (pJ) (Joule)
board.memory.mem_ctrl.dram.rank1.actPowerDownEnergy            0                       # Energy for active power-down per rank (pJ) (Joule)
board.memory.mem_ctrl.dram.rank1.prePowerDownEnergy            0                       # Energy for precharge power-down per rank (pJ) (Joule)
board.memory.mem_ctrl.dram.rank1.selfRefreshEnergy            0                       # Energy for self refresh per rank (pJ) (Joule)
board.memory.mem_ctrl.dram.rank1.totalEnergy 25112189.104800                       # Total energy per rank (pJ) (Joule)
board.memory.mem_ctrl.dram.rank1.averagePower   589.044053                       # Core power per rank (mW) (Watt)
board.memory.mem_ctrl.dram.rank1.totalIdleTime            0                       # Total Idle time Per DRAM Rank (Tick)
board.memory.mem_ctrl.dram.rank1.pwrStateTime::IDLE       633929                       # Time in different power states (Tick)
board.memory.mem_ctrl.dram.rank1.pwrStateTime::REF      1750000                       # Time in different power states (Tick)
board.memory.mem_ctrl.dram.rank1.pwrStateTime::SREF            0                       # Time in different power states (Tick)
board.memory.mem_ctrl.dram.rank1.pwrStateTime::PRE_PDN            0                       # Time in different power states (Tick)
board.memory.mem_ctrl.dram.rank1.pwrStateTime::ACT     40248178                       # Time in different power states (Tick)
board.memory.mem_ctrl.dram.rank1.pwrStateTime::ACT_PDN            0                       # Time in different power states (Tick)
board.memory.mem_ctrl.power_state.pwrStateResidencyTicks::UNDEFINED     42632107                       # Cumulative time (in ticks) in various power states (Tick)
board.processor.cores.core.numCycles            51179                       # Number of cpu cycles simulated (Cycle)
board.processor.cores.core.numWorkItemsStarted            0                       # Number of work items this cpu started (Count)
board.processor.cores.core.numWorkItemsCompleted            0                       # Number of work items this cpu completed (Count)
board.processor.cores.core.numInsts             10738                       # Number of instructions committed (Count)
board.processor.cores.core.numOps               10746                       # Number of ops (including micro ops) committed (Count)
board.processor.cores.core.numDiscardedOps          536                       # Number of ops (including micro ops) which were discarded before commit (Count)
board.processor.cores.core.numFetchSuspends            0                       # Number of times Execute suspended instruction fetching (Count)
board.processor.cores.core.cpi               4.766158                       # CPI: cycles per instruction ((Cycle/Count))
board.processor.cores.core.ipc               0.209813                       # IPC: instructions per cycle ((Count/Cycle))
board.processor.cores.core.committedInstType_0::No_OpClass           32      0.30%      0.30% # Class of committed instruction (Count)
board.processor.cores.core.committedInstType_0::IntAlu         8012     74.56%     74.86% # Class of committed instruction (Count)
board.processor.cores.core.committedInstType_0::IntMult            3      0.03%     74.88% # Class of committed instruction (Count)
board.processor.cores.core.committedInstType_0::IntDiv            6      0.06%     74.94% # Class of committed instruction (Count)
board.processor.cores.core.committedInstType_0::FloatAdd            0      0.00%     74.94% # Class of committed instruction (Count)
board.processor.cores.core.committedInstType_0::FloatCmp            0      0.00%     74.94% # Class of committed instruction (Count)
board.processor.cores.core.committedInstType_0::FloatCvt            0      0.00%     74.94% # Class of committed instruction (Count)
board.processor.cores.core.committedInstType_0::FloatMult            0      0.00%     74.94% # Class of committed instruction (Count)
board.processor.cores.core.committedInstType_0::FloatMultAcc            0      0.00%     74.94% # Class of committed instruction (Count)
board.processor.cores.core.committedInstType_0::FloatDiv            0      0.00%     74.94% # Class of committed instruction (Count)
board.processor.cores.core.committedInstType_0::FloatMisc            0      0.00%     74.94% # Class of committed instruction (Count)
board.processor.cores.core.committedInstType_0::FloatSqrt            0      0.00%     74.94% # Class of committed instruction (Count)
board.processor.cores.core.committedInstType_0::SimdAdd            0      0.00%     74.94% # Class of committed instruction (Count)
board.processor.cores.core.committedInstType_0::SimdAddAcc            0      0.00%     74.94% # Class of committed instruction (Count)
board.processor.cores.core.committedInstType_0::SimdAlu            0      0.00%     74.94% # Class of committed instruction (Count)
board.processor.cores.core.committedInstType_0::SimdCmp            0      0.00%     74.94% # Class of committed instruction (Count)
board.processor.cores.core.committedInstType_0::SimdCvt            0      0.00%     74.94% # Class of committed instruction (Count)
board.processor.cores.core.committedInstType_0::SimdMisc            0      0.00%     74.94% # Class of committed instruction (Count)
board.processor.cores.core.committedInstType_0::SimdMult            0      0.00%     74.94% # Class of committed instruction (Count)
board.processor.cores.core.committedInstType_0::SimdMultAcc            0      0.00%     74.94% # Class of committed instruction (Count)
board.processor.cores.core.committedInstType_0::SimdShift            0      0.00%     74.94% # Class of committed instruction (Count)
board.processor.cores.core.committedInstType_0::SimdShiftAcc            0      0.00%     74.94% # Class of committed instruction (Count)
board.processor.cores.core.committedInstType_0::SimdDiv            0      0.00%     74.94% # Class of committed instruction (Count)
board.processor.cores.core.committedInstType_0::SimdSqrt            0      0.00%     74.94% # Class of committed instruction (Count)
board.processor.cores.core.committedInstType_0::SimdFloatAdd            0      0.00%     74.94% # Class of committed instruction (Count)
board.processor.cores.core.committedInstType_0::SimdFloatAlu            0      0.00%     74.94% # Class of committed instruction (Count)
board.processor.cores.core.committedInstType_0::SimdFloatCmp            0      0.00%     74.94% # Class of committed instruction (Count)
board.processor.cores.core.committedInstType_0::SimdFloatCvt            0      0.00%     74.94% # Class of committed instruction (Count)
board.processor.cores.core.committedInstType_0::SimdFloatDiv            0      0.00%     74.94% # Class of committed instruction (Count)
board.processor.cores.core.committedInstType_0::SimdFloatMisc            0      0.00%     74.94% # Class of committed instruction (Count)
board.processor.cores.core.committedInstType_0::SimdFloatMult            0      0.00%     74.94% # Class of committed instruction (Count)
board.processor.cores.core.committedInstType_0::SimdFloatMultAcc            0      0.00%     74.94% # Class of committed instruction (Count)
board.processor.cores.core.committedInstType_0::SimdFloatSqrt            0      0.00%     74.94% # Class of committed instruction (Count)
board.processor.cores.core.committedInstType_0::SimdReduceAdd            0      0.00%     74.94% # Class of committed instruction (Count)
board.processor.cores.core.committedInstType_0::SimdReduceAlu            0      0.00%     74.94% # Class of committed instruction (Count)
board.processor.cores.core.committedInstType_0::SimdReduceCmp            0      0.00%     74.94% # Class of committed instruction (Count)
board.processor.cores.core.committedInstType_0::SimdFloatReduceAdd            0      0.00%     74.94% # Class of committed instruction (Count)
board.processor.cores.core.committedInstType_0::SimdFloatReduceCmp            0      0.00%     74.94% # Class of committed instruction (Count)
board.processor.cores.core.committedInstType_0::SimdAes            0      0.00%     74.94% # Class of committed instruction (Count)
board.processor.cores.core.committedInstType_0::SimdAesMix            0      0.00%     74.94% # Class of committed instruction (Count)
board.processor.cores.core.committedInstType_0::SimdSha1Hash            0      0.00%     74.94% # Class of committed instruction (Count)
board.processor.cores.core.committedInstType_0::SimdSha1Hash2            0      0.00%     74.94% # Class of committed instruction (Count)
board.processor.cores.core.committedInstType_0::SimdSha256Hash            0      0.00%     74.94% # Class of committed instruction (Count)
board.processor.cores.core.committedInstType_0::SimdSha256Hash2            0      0.00%     74.94% # Class of committed instruction (Count)
board.processor.cores.core.committedInstType_0::SimdShaSigma2            0      0.00%     74.94% # Class of committed instruction (Count)
board.processor.cores.core.committedInstType_0::SimdShaSigma3            0      0.00%     74.94% # Class of committed instruction (Count)
board.processor.cores.core.committedInstType_0::SimdPredAlu            0      0.00%     74.94% # Class of committed instruction (Count)
board.processor.cores.core.committedInstType_0::MemRead         1372     12.77%     87.71% # Class of committed instruction (Count)
board.processor.cores.core.committedInstType_0::MemWrite         1309     12.18%     99.89% # Class of committed instruction (Count)
board.processor.cores.core.committedInstType_0::FloatMemRead            0      0.00%     99.89% # Class of committed instruction (Count)
board.processor.cores.core.committedInstType_0::FloatMemWrite           12      0.11%    100.00% # Class of committed instruction (Count)
board.processor.cores.core.committedInstType_0::IprAccess            0      0.00%    100.00% # Class of committed instruction (Count)
board.processor.cores.core.committedInstType_0::InstPrefetch            0      0.00%    100.00% # Class of committed instruction (Count)
board.processor.cores.core.committedInstType_0::total        10746                       # Class of committed instruction (Count)
board.processor.cores.core.committedControl_0::IsControl         1591                       # Class of control type instructions committed (Count)
board.processor.cores.core.committedControl_0::IsDirectControl         1428                       # Class of control type instructions committed (Count)
board.processor.cores.core.committedControl_0::IsIndirectControl          163                       # Class of control type instructions committed (Count)
board.processor.cores.core.committedControl_0::IsCondControl         1223                       # Class of control type instructions committed (Count)
board.processor.cores.core.committedControl_0::IsUncondControl          368                       # Class of control type instructions committed (Count)
board.processor.cores.core.committedControl_0::IsCall          141                       # Class of control type instructions committed (Count)
board.processor.cores.core.committedControl_0::IsReturn          135                       # Class of control type instructions committed (Count)
board.processor.cores.core.branchPred.lookups         3389                       # Number of BP lookups (Count)
board.processor.cores.core.branchPred.condPredicted         2408                       # Number of conditional branches predicted (Count)
board.processor.cores.core.branchPred.condIncorrect          611                       # Number of conditional branches incorrect (Count)
board.processor.cores.core.branchPred.BTBLookups         1696                       # Number of BTB lookups (Count)
board.processor.cores.core.branchPred.BTBHits          429                       # Number of BTB hits (Count)
board.processor.cores.core.branchPred.BTBHitRatio     0.252948                       # BTB Hit Ratio (Ratio)
board.processor.cores.core.branchPred.RASUsed          259                       # Number of times the RAS was used to get a target. (Count)
board.processor.cores.core.branchPred.RASIncorrect           15                       # Number of incorrect RAS predictions. (Count)
board.processor.cores.core.branchPred.indirectLookups           69                       # Number of indirect predictor lookups. (Count)
board.processor.cores.core.branchPred.indirectHits            1                       # Number of indirect target hits. (Count)
board.processor.cores.core.branchPred.indirectMisses           68                       # Number of indirect misses. (Count)
board.processor.cores.core.branchPred.indirectMispredicted           35                       # Number of mispredicted indirect branches. (Count)
board.processor.cores.core.fetch2.intInstructions        13036                       # Number of integer instructions successfully decoded (Count)
board.processor.cores.core.fetch2.fpInstructions            0                       # Number of floating point instructions successfully decoded (Count)
board.processor.cores.core.fetch2.vecInstructions            0                       # Number of SIMD instructions successfully decoded (Count)
board.processor.cores.core.fetch2.loadInstructions         3022                       # Number of memory load instructions successfully decoded (Count)
board.processor.cores.core.fetch2.storeInstructions         2019                       # Number of memory store instructions successfully decoded (Count)
board.processor.cores.core.fetch2.amoInstructions            0                       # Number of memory atomic instructions successfully decoded (Count)
board.processor.cores.core.mmu.dtb.readHits            0                       # read hits (Count)
board.processor.cores.core.mmu.dtb.readMisses            0                       # read misses (Count)
board.processor.cores.core.mmu.dtb.readAccesses            0                       # read accesses (Count)
board.processor.cores.core.mmu.dtb.writeHits            0                       # write hits (Count)
board.processor.cores.core.mmu.dtb.writeMisses            0                       # write misses (Count)
board.processor.cores.core.mmu.dtb.writeAccesses            0                       # write accesses (Count)
board.processor.cores.core.mmu.dtb.hits             0                       # Total TLB (read and write) hits (Count)
board.processor.cores.core.mmu.dtb.misses            0                       # Total TLB (read and write) misses (Count)
board.processor.cores.core.mmu.dtb.accesses            0                       # Total TLB (read and write) accesses (Count)
board.processor.cores.core.mmu.dtb.walker.power_state.pwrStateResidencyTicks::UNDEFINED     42632107                       # Cumulative time (in ticks) in various power states (Tick)
board.processor.cores.core.mmu.itb.readHits            0                       # read hits (Count)
board.processor.cores.core.mmu.itb.readMisses            0                       # read misses (Count)
board.processor.cores.core.mmu.itb.readAccesses            0                       # read accesses (Count)
board.processor.cores.core.mmu.itb.writeHits            0                       # write hits (Count)
board.processor.cores.core.mmu.itb.writeMisses            0                       # write misses (Count)
board.processor.cores.core.mmu.itb.writeAccesses            0                       # write accesses (Count)
board.processor.cores.core.mmu.itb.hits             0                       # Total TLB (read and write) hits (Count)
board.processor.cores.core.mmu.itb.misses            0                       # Total TLB (read and write) misses (Count)
board.processor.cores.core.mmu.itb.accesses            0                       # Total TLB (read and write) accesses (Count)
board.processor.cores.core.mmu.itb.walker.power_state.pwrStateResidencyTicks::UNDEFINED     42632107                       # Cumulative time (in ticks) in various power states (Tick)
board.processor.cores.core.power_state.pwrStateResidencyTicks::ON     42632107                       # Cumulative time (in ticks) in various power states (Tick)
board.processor.cores.core.thread_0.numInsts        10738                       # Number of Instructions committed (Count)
board.processor.cores.core.thread_0.numOps        10746                       # Number of Ops committed (Count)
board.processor.cores.core.thread_0.numMemRefs            0                       # Number of Memory References (Count)
board.processor.cores.core.workload.numSyscalls           14                       # Number of system calls (Count)
board.workload.inst.arm                             0                       # number of arm instructions executed (Count)
board.workload.inst.quiesce                         0                       # number of quiesce instructions executed (Count)
board.processor.cores.core.idleCycles           34433                       # Total number of cycles that the object has spent stopped (Unspecified)
board.processor.cores.core.tickCycles           16746                       # Number of cycles that the object actually ticked (Unspecified)

---------- End Simulation Statistics   ----------
